27

N    0.033102  -1.759436  1.497712
C    -0.417682  -0.452299  2.001148
C    0.771911  0.501451  2.004516
O    1.927127  0.185203  1.772235
H    0.485536  -1.659132  0.587289
H    -0.772213  -2.372805  1.363481
H    -1.171481  0.011418  1.340683
C    -1.075242  -0.568272  3.401975
C    -0.179078  -0.795064  4.633565
C    0.505542  -2.163260  4.784602
N    1.516832  -2.380022  3.751597
C    2.836183  -2.355248  3.906886
N    3.421957  -2.720645  5.065496
N    3.594297  -1.964010  2.868998
H    -1.634460  0.361921  3.567081
H    -1.834242  -1.364862  3.339627
H    -0.816514  -0.662256  5.520364
H    0.587508  -0.006511  4.698349
H    -0.234715  -2.975294  4.729137
H    0.971096  -2.219184  5.776235
H    1.134879  -2.260392  2.774638
H    4.402090  -2.536892  5.233261
H    3.182548  -1.321808  2.189673
H    4.588565  -2.146737  2.840946
H    2.933605  -3.303893  5.731691
O    0.391491  1.757174  2.288528
H    1.186359  2.326859  2.262287
