56
geometry_110.in
Na         0.00000        0.00000        0.00000
N          2.09540       -0.72160        0.52710
C          2.75620       -1.39600        1.65680
C          1.74860       -1.64080        2.76180
O          1.60180       -2.81390        3.19590
N          0.98620       -0.57130        3.35880
C          0.46660       -0.64420        4.72100
C         -0.72590       -1.57690        4.81440
O         -0.92330       -2.41430        3.89250
N         -1.66770       -1.52850        5.90450
C         -1.50960       -0.74290        7.14030
C         -0.11720       -0.93070        7.70090
O          0.04140       -1.00720        8.94870
O          1.00700       -0.99170        6.87770
C         -2.60630       -1.07370        8.17840
C         -3.57800        0.04860        8.45590
C         -4.96190       -0.17130        8.37660
C         -5.85770        0.87160        8.63500
C         -5.38070        2.12930        9.00770
C         -4.00600        2.34950        9.11110
C         -3.10670        1.31600        8.83850
C          0.07060        0.79410        5.06460
C         -0.11910        1.49160        3.72320
C          0.78040        0.73780        2.75460
C          3.93610       -0.56080        2.19840
C          3.62850        0.90860        2.17470
N          3.25780        1.62220        3.25950
C          3.17340        2.89100        2.80240
N          3.47320        2.99540        1.49270
C          3.75840        1.74640        1.08840
H          2.73010       -0.69200       -0.30330
H          1.82340        0.25320        0.79170
H          1.22920       -1.24410        0.25550
H          3.16230       -2.36220        1.29080
H          1.28950       -0.99090        5.38270
H         -2.51800       -2.13150        5.81240
H         -1.61890        0.33860        6.92750
H          0.94880       -0.88120        5.87190
H         -3.15980       -1.97560        7.83290
H         -2.12930       -1.37030        9.13810
H         -5.34580       -1.14690        8.10120
H         -6.92440        0.68910        8.58160
H         -6.07670        2.93210        9.22490
H         -3.63820        3.32800        9.39790
H         -2.03940        1.50950        8.90760
H          0.90780        1.28120        5.61080
H         -0.84660        0.86840        5.69030
H         -1.18240        1.39430        3.40510
H          0.14740        2.56990        3.78580
H          0.30190        0.63900        1.75570
H          1.75200        1.27280        2.66640
H          4.83850       -0.74120        1.57270
H          4.17470       -0.87120        3.23890
H          2.87510        3.73040        3.41500
H          3.48200        3.86590        0.91510
H          4.05500        1.47300        0.08390
