14
/home/maksimov/programs/fafoom-dev/test_cluster/two/initial_0/analyze/geometry.in
Ca         0.00000        0.00000        0.00000
O          3.55800       -4.78740        4.29380
C          3.67620       -4.19160        3.19000
O          4.90840       -4.20150        2.54180
C          2.48460       -3.52190        2.55980
N          1.76220       -2.73090        3.55890
C          1.56830       -4.56540        1.91020
H          5.03460       -3.75490        1.64140
H          2.84440       -2.83300        1.76390
H          1.28160       -3.37100        4.23330
H          1.01700       -2.18080        3.07250
H          1.18770       -5.28240        2.66920
H          0.70370       -4.06320        1.42670
H          2.12500       -5.12890        1.13090
