
     RDKit          3D

  4  3  0  0  0  0  0  0  0  0999 V2000
   -0.0042   -0.0010    0.2949 N   0  0  0  0  0  0  0  0  0  0  0  0
    0.9456   -0.2106   -0.0857 H   0  0  0  0  0  0  0  0  0  0  0  0
   -0.6534   -0.7120   -0.1100 H   0  0  0  0  0  0  0  0  0  0  0  0
   -0.2881    0.9236   -0.0993 H   0  0  0  0  0  0  0  0  0  0  0  0
  1  2  1  0
  1  3  1  0
  1  4  1  0
M  END
$$$$
