56
geometry.in
Na         0.00000        0.00000        0.00000
N          3.23140        2.93830        3.36360
C          3.58730        1.53700        3.11310
C          2.53360        0.62680        3.69920
O          2.39800        0.54090        4.94800
N          1.66500       -0.12660        2.84360
C          0.44860        0.42920        2.25720
C         -0.59330        0.72360        3.31990
O         -0.25570        1.34970        4.35980
N         -1.96350        0.32940        3.17610
C         -2.81130        0.85870        2.10110
C         -3.62450        2.03390        2.58490
O         -3.69820        2.30270        3.81210
O         -4.30460        2.83900        1.67540
C         -3.70590       -0.25340        1.51030
C         -4.50700       -0.99460        2.55610
C         -5.66560       -0.42210        3.11030
C         -6.38440       -1.10100        4.09840
C         -5.95730       -2.35740        4.53580
C         -4.81290       -2.93690        3.98420
C         -4.09160       -2.26120        2.99620
C          0.00370       -0.62030        1.22970
C          1.25620       -1.42530        0.90810
C          2.13240       -1.31000        2.14490
C          4.98120        1.22480        3.69850
C          5.46030       -0.13760        3.29690
N          5.82750       -0.46830        2.04230
C          6.18770       -1.76500        2.14280
N          6.06240       -2.24720        3.39410
C          5.60570       -1.22370        4.13050
H          3.19300        3.13250        4.39230
H          3.93990        3.56850        2.92110
H          2.29730        3.14780        2.93870
H          3.62310        1.38050        2.01090
H          0.70190        1.37650        1.73290
H         -2.43570       -0.03550        4.03450
H         -2.16660        1.23780        1.27910
H         -4.25570        2.66290        0.67870
H         -4.39440        0.16740        0.74450
H         -3.05380       -0.97140        0.96520
H         -6.01320        0.54630        2.77550
H         -7.27470       -0.65670        4.52140
H         -6.51370       -2.88030        5.30190
H         -4.48390       -3.91190        4.32280
H         -3.20280       -2.72190        2.58340
H         -0.74280       -1.31910        1.66560
H         -0.41830       -0.14960        0.31470
H          1.77530       -0.96340        0.03810
H          1.01690       -2.48540        0.67080
H          3.19460       -1.20730        1.84930
H          2.00890       -2.19690        2.79900
H          5.71970        1.97010        3.33290
H          4.95220        1.30500        4.80750
H          6.53990       -2.35290        1.30570
H          6.27660       -3.21430        3.72210
H          5.39060       -1.26800        5.19040
