14
geometry.in
Ca         0.00000        0.00000        0.00000
O         -3.44200       -2.78740       -0.70620
C         -3.32380       -2.19160       -1.81000
O         -2.09160       -2.20150       -2.45820
C         -4.51540       -1.52190       -2.44020
N         -5.23780       -0.73090       -1.44110
C         -5.43170       -2.56540       -3.08980
H         -1.96540       -1.75490       -3.35860
H         -4.15560       -0.83300       -3.23610
H         -5.71840       -1.37100       -0.76670
H         -5.98300       -0.18080       -1.92750
H         -5.81230       -3.28240       -2.33080
H         -6.29630       -2.06320       -3.57330
H         -4.87500       -3.12890       -3.86910
