14
Str.1 1.911 in initial_0
Ca      0.00000000        0.00000000        0.00000000 
O     -3.50995575        1.87134964        0.82155947 
C     -4.31019961        2.71076693        0.44164299 
O     -4.31373789        3.07050602       -0.87179683 
C     -5.36672562        3.39402059        1.32575373 
N     -4.92372830        3.35345714        2.71450311 
C     -6.76686065        2.79070140        1.04161914 
H     -4.97955380        3.77004027       -1.03021240 
H     -5.38787634        4.45967988        1.02883524 
H     -4.91175154        2.38774479        3.05368125 
H     -5.58678630        3.86492243        3.30122371 
H     -6.78082846        1.71182307        1.24773157 
H     -7.50353281        3.27498180        1.69810253 
H     -7.10122421        2.94415438        0.00481695 
14
Str.2 1.823 in initial_1
Ca      0.00000000        0.00000000        0.00000000 
O      0.50524596        1.98102029       -3.23233547 
C      1.32197609        2.23676721       -4.10508676 
O      2.41448838        1.43564491       -4.22826726 
C      1.22856692        3.38716685       -5.11939240 
N      0.26298500        4.37245246       -4.64965168 
C      0.98781043        2.83422388       -6.54969872 
H      2.99733505        1.76218761       -4.94348010 
H      2.21760348        3.88351440       -5.11401465 
H     -0.67220380        3.95975019       -4.60840042 
H      0.21465576        5.14667599       -5.31677642 
H      0.01532444        2.32906944       -6.62369797 
H      0.98563716        3.67428253       -7.25916706 
H      1.76397610        2.13099509       -6.88759731 
14
Str.3 2.045 in initial_2
Ca      0.00000000        0.00000000        0.00000000 
O      1.26668790       -3.27549308       -2.54070810 
C      1.77762582       -3.83855983       -3.49312965 
O      3.11839932       -4.06251469       -3.49004475 
C      1.01293434       -4.33550821       -4.72804254 
N     -0.35334108       -3.82813827       -4.65515462 
C      1.14166940       -5.87072901       -4.89149470 
H      3.38676392       -4.54193268       -4.29863530 
H      1.49516381       -3.85973143       -5.60279863 
H     -0.78262507       -4.11992654       -3.77326041 
H     -0.91433819       -4.22831153       -5.40964716 
H      0.73200263       -6.40046622       -4.02000407 
H      0.58341556       -6.19068492       -5.78184190 
H      2.18004609       -6.20757510       -5.03717452 
14
Str.4 1.654 in initial_3
Ca      0.00000000        0.00000000        0.00000000 
O     -2.01413819       -1.00290203       -2.54849134 
C     -2.26904851       -1.47587816       -3.65006739 
O     -1.30822121       -2.18000932       -4.29416584 
C     -3.60339807       -1.32113391       -4.42153347 
N     -4.57607968       -0.61025812       -3.60319109 
C     -4.10202030       -2.65972638       -5.03070680 
H     -1.66134875       -2.53234946       -5.13734339 
H     -3.35024108       -0.64989805       -5.26383357 
H     -4.98239455       -1.23634588       -2.90178175 
H     -5.35227537       -0.30375369       -4.19490284 
H     -4.27180634       -3.42211151       -4.25794864 
H     -5.05759440       -2.48141954       -5.54316471 
H     -3.43447105       -3.09342091       -5.79601570 
14
Str.5 2.178 in initial_4
Ca      0.00000000        0.00000000        0.00000000 
O     -2.85405855       -3.89967764       -1.15912122 
C     -3.22809808       -4.46343036       -2.17010301 
O     -2.33615996       -5.17801030       -2.90695870 
C     -4.66422973       -4.41507221       -2.70424738 
N     -5.43530222       -3.51201357       -1.85974962 
C     -5.27990982       -5.82350966       -2.86964784 
H     -2.78669211       -5.59952848       -3.66460306 
H     -4.58988096       -3.96175267       -3.71332147 
H     -5.14941108       -3.60809908       -0.88180479 
H     -6.43505213       -3.70206470       -1.93143671 
H     -5.34132399       -6.34563347       -1.90543674 
H     -6.29422853       -5.73336402       -3.28007254 
H     -4.71852077       -6.46031442       -3.57166130 
14
Str.6 1.462 in initial_5
Ca      0.00000000        0.00000000        0.00000000 
O     -1.49186522       -1.37056113       -2.34347210 
C     -1.57606217       -2.15764490       -3.28571644 
O     -0.56647617       -3.02701839       -3.49197128 
C     -2.73403203       -2.20510189       -4.32899341 
N     -3.97046683       -1.72461541       -3.72636425 
C     -2.86232300       -3.55247314       -5.08614147 
H     -0.78732201       -3.61269557       -4.24790202 
H     -2.42479082       -1.44345169       -5.06961689 
H     -4.43391975       -2.47717764       -3.20739770 
H     -4.62242844       -1.44408230       -4.46318908 
H     -3.10921683       -4.38913596       -4.41480057 
H     -3.68504400       -3.46850678       -5.81212694 
H     -1.98204122       -3.82991201       -5.69612079 
14
Str.7 1.842 in initial_6
Ca      0.00000000        0.00000000        0.00000000 
O      1.67037145       -1.55546015       -3.01019149 
C      1.97772417       -1.75931928       -4.17367303 
O      3.19273728       -2.29323507       -4.45004155 
C      1.09590557       -1.41624380       -5.39338100 
N     -0.24136750       -1.06383682       -4.91943287 
C      1.13699395       -2.49327557       -6.50629111 
H      3.28041503       -2.45561125       -5.41221200 
H      1.54504937       -0.49314479       -5.80779624 
H     -0.74127629       -1.91393019       -4.64292784 
H     -0.77831985       -0.66247477       -5.69210910 
H      0.80456712       -3.47877426       -6.14720342 
H      0.46928232       -2.19301728       -7.32524431 
H      2.12962728       -2.61970679       -6.97070243 
14
Str.8 0.950 in initial_7
Ca      0.00000000        0.00000000        0.00000000 
O      3.16248233       -1.66325831        3.03648700 
C      3.26859673       -2.41372512        2.08739450 
O      4.32651387       -3.22801922        1.96075671 
C      2.20801307       -2.39935797        0.95773409 
N      1.05845714       -1.57664421        1.46721579 
C      1.74485997       -3.76679291        0.45889315 
H      4.25248564       -3.79945427        1.17255120 
H      2.68017052       -1.84996265        0.12084353 
H      1.46686964       -1.09665205        2.30353773 
H      0.37734418       -2.22916359        1.88515513 
H      1.35180768       -4.38471579        1.27804894 
H      0.96278951       -3.65737853       -0.30485931 
H      2.56052694       -4.32333753       -0.02200671 
14
Str.9 2.272 in initial_8
Ca      0.00000000        0.00000000        0.00000000 
O     -2.74527012       -2.92193699        3.44370705 
C     -3.31011135       -3.45447904        2.51428082 
O     -2.56578900       -4.02859676        1.51459435 
C     -4.82985092       -3.47568882        2.31452642 
N     -5.44748431       -2.67779098        3.36030230 
C     -5.40339469       -4.90084589        2.18151962 
H     -3.15821769       -4.50054922        0.89565594 
H     -4.98951182       -2.96671418        1.34064133 
H     -4.84871651       -2.62924744        4.18851679 
H     -6.37016722       -3.02410907        3.62041896 
H     -5.25277759       -5.48057497        3.10153147 
H     -6.48194216       -4.83458509        1.98035535 
H     -4.96963418       -5.46441900        1.33993526 
14
Str.10 0.214 in initial_9
Ca      0.00000000        0.00000000        0.00000000 
O      1.16831442        1.73689447        1.15816267 
C      2.17976797        2.10571688        1.80533500 
O      3.08883903        1.27704126        2.23171140 
C      2.53149170        3.59123757        2.15850596 
N      3.88462359        3.52049032        2.77140502 
C      1.53387012        4.27940445        3.09499464 
H      3.79032125        1.97611768        2.64773726 
H      2.57704204        4.14093157        1.20601043 
H      3.89752809        3.90784714        3.72029626 
H      4.59522955        4.01840044        2.22914262 
H      1.47912548        3.76623238        4.06628950 
H      1.87383500        5.30845079        3.27669421 
H      0.52705731        4.32414455        2.66607884 
14
Str.11 0.621 in generation_0_child1
Ca      0.00000000        0.00000000        0.00000000 
O     -2.12338940       -0.63941232       -0.16899294 
C     -3.31286325       -0.98975896       -0.17816842 
O     -3.75483116       -1.61189709       -1.26280297 
C     -4.29750675       -0.68654447        0.96279062 
N     -3.54818005       -0.49908210        2.20017724 
C     -5.48103139       -1.67804591        1.01992622 
H     -4.69644937       -1.86884100       -1.15435775 
H     -4.70177958        0.30391832        0.67744654 
H     -3.38346885       -1.40024317        2.65899622 
H     -4.09412212        0.06363363        2.85545041 
H     -5.14875811       -2.71620085        1.17470529 
H     -6.13560110       -1.41209278        1.86067447 
H     -6.13164590       -1.64186554        0.12902622 
14
Str.12 1.610 in generation_0_child2
Ca      0.00000000        0.00000000        0.00000000 
O      0.10288351        2.32328260       -2.44882394 
C      0.73588656        2.80997587       -3.37820137 
O      1.79366812        2.11797675       -3.87258430 
C      0.46479846        4.16974881       -4.06365270 
N     -0.49397200        4.94554145       -3.29180872 
C      0.13190716        4.00700478       -5.57119767 
H      2.21571268        2.61845578       -4.60062514 
H      1.42786693        4.71149308       -3.99800805 
H     -1.44962459        4.61553927       -3.45813763 
H     -0.46697869        5.91931409       -3.60455523 
H     -0.83901510        3.51092234       -5.71175896 
H      0.07209598        5.00455346       -6.03021533 
H      0.88316165        3.44019175       -6.14500614 
14
Str.13 2.125 in generation_1_child1
Ca      0.00000000        0.00000000        0.00000000 
O     -3.28378443        1.55266223       -3.55604735 
C     -3.29734048        1.89524779       -4.72238276 
O     -2.20359235        1.66543081       -5.50175643 
C     -4.50610221        2.52701900       -5.42193895 
N     -5.24383154        3.29851419       -4.43285196 
C     -5.31173359        1.40548342       -6.12782955 
H     -2.34843051        2.04094838       -6.39275617 
H     -4.14334527        3.23460406       -6.18987114 
H     -5.41042972        2.74261443       -3.58973281 
H     -6.13568444        3.63311016       -4.79931466 
H     -5.70613195        0.69792077       -5.38534128 
H     -6.15657386        1.84332570       -6.67556665 
H     -4.69947546        0.84435298       -6.84931354 
14
Str.14 0.241 in generation_1_child2
Ca      0.00000000        0.00000000        0.00000000 
O      0.71138398        2.06800914        1.04755946 
C      1.54474985        2.66415974        1.77238159 
O      2.47641359        2.03536263        2.43274436 
C      1.62605327        4.21558709        1.97201059 
N      2.87029497        4.43757867        2.75202492 
C      0.41069420        4.80916667        2.69197619 
H      3.00206050        2.85941561        2.85053920 
H      1.71167651        4.66518933        0.97137775 
H      2.69134913        4.96091626        3.61424935 
H      3.59065735        4.94290152        2.23098922 
H      0.33303687        4.42676684        3.72140730 
H      0.51885148        5.90253383        2.74062584 
H     -0.52533687        4.58521948        2.16784875 
14
Str.15 0.794 in generation_2_child1
Ca      0.00000000        0.00000000        0.00000000 
O      0.30302508        1.20695095       -2.04677102 
C      0.65101797        1.43283928       -3.21823292 
O      1.21283891        0.43834648       -3.90535420 
C      0.53355754        2.81270822       -3.92467973 
N     -0.71260835        3.46150252       -3.54214406 
C      0.81930300        2.77213788       -5.44520283 
H      1.41375743        0.73964783       -4.81982029 
H      1.35404229        3.38830939       -3.45661661 
H     -1.45510878        3.23875557       -4.21099270 
H     -0.59676749        4.47611159       -3.56841760 
H      0.07539218        2.17665683       -5.99897181 
H      0.75769916        3.79653034       -5.84184411 
H      1.83426095        2.42287455       -5.70536543 
14
Str.16 1.033 in generation_2_child2
Ca      0.00000000        0.00000000        0.00000000 
O     -1.07665641        0.99397773        1.73156762 
C     -1.30369027        2.08925579        1.18065233 
O     -0.37283685        2.40392961        0.19697972 
C     -2.63593659        2.79299238        1.18481416 
N     -3.04310935        3.02493819        2.55928448 
C     -3.55272508        1.89127517        0.30751950 
H     -0.57023376        3.24084867       -0.27027697 
H     -2.51469384        3.77433507        0.69692461 
H     -3.33229450        2.15527478        3.01414706 
H     -3.83132278        3.67254590        2.59338173 
H     -3.77459933        0.95670748        0.84288528 
H     -4.49542664        2.41074543        0.09709953 
H     -3.09338903        1.62953445       -0.66428756 
14
Str.17 1.245 in generation_3_child1
Ca      0.00000000        0.00000000        0.00000000 
O      1.19523425       -2.50003699       -1.52027605 
C      0.95277784       -3.25305197       -2.45667074 
O      1.85496490       -4.18910853       -2.80540240 
C     -0.32796993       -3.16145285       -3.31166451 
N     -1.33318038       -2.42088064       -2.52610056 
C     -0.81955494       -4.50538155       -3.90020428 
H      1.51828059       -4.73577140       -3.54656825 
H     -0.03653745       -2.51529490       -4.16036599 
H     -1.77525277       -3.07431241       -1.86980846 
H     -2.08066196       -2.11821895       -3.15571569 
H     -0.99720979       -5.26756485       -3.12767921 
H     -1.76614286       -4.34746537       -4.43678625 
H     -0.13443780       -4.93098146       -4.65391696 
14
Str.18 1.942 in generation_3_child2
Ca      0.00000000        0.00000000        0.00000000 
O      1.39049855        1.78163996       -3.47004563 
C      2.30397457        2.03419128       -4.23867181 
O      3.42561845        1.26675812       -4.21031245 
C      2.27633254        3.14660546       -5.29593456 
N      1.34709791        4.18180568       -4.85952060 
C      1.99334032        2.53369956       -6.69125616 
H      4.08154022        1.60516768       -4.85250406 
H      3.28326301        3.60379524       -5.32156591 
H      0.42257303        3.77416188       -4.69150783 
H      1.24057012        4.88886185       -5.59087877 
H      0.99551018        2.07268942       -6.72078834 
H      2.02439222        3.32953224       -7.44934593 
H      2.73219080        1.77345441       -6.98863876 
14
Str.19 2.581 in generation_4_child1
Ca      0.00000000        0.00000000        0.00000000 
O      4.39711422       -1.61785743        4.30252268 
C      4.65385180       -1.02515146        3.28204470 
O      5.88949969       -1.05309085        2.73160094 
C      3.55299885       -0.25124595        2.51183009 
N      2.86319770        0.57047672        3.48485649 
C      2.70120315       -1.31854872        1.78929000 
H      5.93478868       -0.45461764        1.96069329 
H      4.00517869        0.41577598        1.75545926 
H      2.56414298        0.01612771        4.29211574 
H      2.07847931        1.10045483        3.10320046 
H      2.21688818       -1.99689106        2.50690091 
H      1.89039563       -0.77271174        1.24820431 
H      3.25526736       -1.90672461        1.04121905 
14
Str.20 1.841 in generation_4_child2
Ca      0.00000000        0.00000000        0.00000000 
O     -1.72461150        1.42576608       -3.19724680 
C     -1.54118234        1.71218016       -4.37017679 
O     -0.40075861        1.28917839       -4.97760218 
C     -2.52542077        2.48691102       -5.26163937 
N     -3.39410143        3.30204999       -4.42369466 
C     -3.23968872        1.50704892       -6.22996983 
H     -0.36830262        1.61588725       -5.90027365 
H     -1.92344247        3.18684112       -5.87269343 
H     -3.96153478        2.70533370       -3.81595754 
H     -4.04420677        3.82809802       -5.01382898 
H     -3.84324447        0.77567701       -5.67351916 
H     -3.91277727        2.07776057       -6.88541399 
H     -2.54402964        0.95431854       -6.88106474 
14
Str.21 1.560 in generation_5_child1
Ca      0.00000000        0.00000000        0.00000000 
O      1.79866499        1.89881974       -2.03005842 
C      2.85194060        2.17093685       -2.60046476 
O      3.84639297        1.25183890       -2.60121110 
C      3.15303039        3.47559515       -3.36060042 
N      2.26979382        4.53503719       -2.89522265 
C      3.16007216        3.22158550       -4.89370537 
H      4.62831478        1.60043073       -3.07811123 
H      4.17900973        3.77454910       -3.07217184 
H      1.30406074        4.34944948       -3.18131875 
H      2.54358196        5.41905054       -3.33298061 
H      2.16139037        2.93218273       -5.25179126 
H      3.45070805        4.15001037       -5.40635924 
H      3.87331655        2.44391213       -5.20680648 
14
Str.22 2.247 in generation_5_child2
Ca      0.00000000        0.00000000        0.00000000 
O     -4.04168664       -3.70526928       -0.72859307 
C     -4.25344279       -3.73118763       -1.92252605 
O     -3.23870522       -4.05813832       -2.77837187 
C     -5.60941628       -3.42283776       -2.56507244 
N     -6.36714101       -2.60972064       -1.62450057 
C     -6.30731745       -4.72943059       -3.01344439 
H     -3.55493783       -4.01990702       -3.70337477 
H     -5.41722181       -2.80964838       -3.46716578 
H     -6.26090002       -2.97689490       -0.67440701 
H     -7.35881091       -2.57663838       -1.86397890 
H     -6.53557604       -5.36530183       -2.14690625 
H     -7.24954615       -4.48293564       -3.52289959 
H     -5.69625725       -5.31327956       -3.71864957 
14
Str.23 0.431 in generation_6_child1
Ca      0.00000000        0.00000000        0.00000000 
O     -2.28366874       -1.22871560        0.18095758 
C     -3.48519246       -1.21489044        0.53627761 
O     -3.99588959       -0.26022935        1.26973457 
C     -4.56918576       -2.28707782        0.14489257 
N     -5.86089613       -1.72731586        0.61769632 
C     -4.33723677       -3.67977058        0.74163584 
H     -5.01345659       -0.55113924        1.28171157 
H     -4.56126141       -2.35632964       -0.95375824 
H     -6.35339793       -2.37133359        1.24342505 
H     -6.50402055       -1.49392087       -0.14284648 
H     -4.43117478       -3.66002085        1.83815879 
H     -5.10089084       -4.36680830        0.34821677 
H     -3.35177475       -4.08528785        0.48356234 
14
Str.24 0.447 in generation_6_child2
Ca      0.00000000        0.00000000        0.00000000 
O     -0.33616335       -2.01389508        0.71819831 
C     -0.69891159       -2.28451797       -0.49311699 
O      0.30420917       -1.73675818       -1.43464720 
C     -2.12928948       -1.93166759       -0.90765115 
N     -2.33471913       -0.47529000       -0.47124360 
C     -3.16094139       -2.86268006       -0.29292488 
H      0.21941037       -2.10564365       -2.33216837 
H     -2.20465821       -1.93920155       -2.00439414 
H     -2.85118650       -0.48960809        0.41885809 
H     -2.95035249        0.00845362       -1.13311751 
H     -3.07522128       -2.86441146        0.80343302 
H     -4.17684331       -2.55810952       -0.57831053 
H     -2.99655285       -3.89075467       -0.63802587 
14
Str.25 0.388 in generation_7_child1
Ca      0.00000000        0.00000000        0.00000000 
O      1.67072883       -1.03917334       -1.16579865 
C      1.94381324       -1.51450274       -2.27631958 
O      3.14184559       -2.05874308       -2.44216196 
C      0.98648143       -1.42962064       -3.47440679 
N     -0.37942118       -1.26629827       -2.94290435 
C      1.18149970       -2.54810808       -4.51654007 
H      3.22693629       -2.45020604       -3.33712818 
H      1.26064811       -0.46973814       -3.95195538 
H     -0.80507633       -2.19112608       -2.80804721 
H     -0.96197591       -0.79740022       -3.64285185 
H      1.00612855       -3.54847338       -4.09354057 
H      0.47944180       -2.40748048       -5.34854689 
H      2.18090904       -2.53241446       -4.98162439 
14
Str.26 1.949 in generation_7_child2
Ca      0.00000000        0.00000000        0.00000000 
O      2.08327426       -3.81923969        3.99498163 
C      2.08073909       -4.68980654        3.14873048 
O      2.91385125       -5.75031726        3.25555681 
C      1.14718507       -4.64086772        1.91687582 
N      0.40841458       -3.34723823        1.94511316 
C      0.21270780       -5.86278456        1.88998808 
H      2.80598023       -6.36279238        2.50088267 
H      1.79429322       -4.66878689        1.02171474 
H      0.71035923       -2.90245075        2.82844607 
H     -0.58579962       -3.55798056        2.07847278 
H     -0.35824355       -5.94863278        2.82625065 
H     -0.49071573       -5.79330011        1.04908882 
H      0.76523961       -6.80522002        1.75495709 
14
Str.27 2.445 in generation_8_child1
Ca      0.00000000        0.00000000        0.00000000 
O     -3.93257180       -3.75821380        5.08241022 
C     -4.28892550       -3.82922224        3.92965549 
O     -3.41373272       -4.24566461        2.96193835 
C     -5.70032659       -3.47416621        3.44066079 
N     -6.35312031       -2.70206234        4.47926474 
C     -6.46845995       -4.74593114        3.02079720 
H     -3.87949095       -4.29299957        2.10368754 
H     -5.57940658       -2.83322775        2.54178807 
H     -5.94936681       -2.90678411        5.39875171 
H     -7.36657839       -2.80922881        4.49077407 
H     -6.57540419       -5.43076879        3.87227724 
H     -7.46949265       -4.47190615        2.66097921 
H     -5.96813999       -5.28736465        2.20270636 
14
Str.28 0.176 in generation_8_child2
Ca      0.00000000        0.00000000        0.00000000 
O      0.66088192       -1.30191838       -1.74248429 
C      0.06521756       -1.56190854       -2.80301196 
O      0.66560806       -2.35206214       -3.68665058 
C     -1.26846980       -0.89985966       -3.14811692 
N     -1.89791494       -0.49782543       -1.85286313 
C     -2.16611209       -1.70145452       -4.10107957 
H      0.09066892       -2.51722698       -4.46253007 
H     -0.98094658        0.04427768       -3.65283197 
H     -2.46621808       -1.28518962       -1.50747595 
H     -2.58027089        0.24704790       -2.04337318 
H     -2.44248444       -2.68212917       -3.68709070 
H     -3.09114320       -1.14651333       -4.30961626 
H     -1.69612641       -1.85694723       -5.08677849 
14
Str.29 1.512 in generation_9_child1
Ca      0.00000000        0.00000000        0.00000000 
O      4.09200159       -2.19106329       -1.48440133 
C      4.19935696       -1.44718362       -2.43821360 
O      5.41820348       -1.08380415       -2.89068694 
C      2.96990536       -0.91460429       -3.19962824 
N      1.76317332       -1.24306183       -2.36570554 
C      2.93440029       -1.55322557       -4.60607376 
H      5.35731538       -0.52173258       -3.68877494 
H      3.05918843        0.18011210       -3.29718932 
H      2.07147519       -2.06614076       -1.81692721 
H      1.03751968       -1.58756439       -3.00376559 
H      2.91981621       -2.65150008       -4.54160064 
H      2.05645259       -1.21822224       -5.17465795 
H      3.81575314       -1.27415276       -5.20394230 
14
Str.30 0.000 in generation_9_child2
Ca      0.00000000        0.00000000        0.00000000 
O     -1.89585036       -0.78481276       -0.83581186 
C     -2.98196443       -0.16207982       -0.59781514 
O     -3.11590626        0.89384085        0.07061820 
C     -4.27740141       -0.75917100       -1.21665422 
N     -5.35997270        0.19068883       -0.72857697 
C     -4.54322589       -2.20327578       -0.82211820 
H     -4.75141725        0.89760776       -0.17695471 
H     -4.21006121       -0.65290178       -2.30864924 
H     -6.03795812       -0.26649362       -0.10652267 
H     -5.87703654        0.65788125       -1.48310970 
H     -4.66034640       -2.31517576        0.26679601 
H     -5.43294173       -2.60553472       -1.32316584 
H     -3.68227223       -2.81100493       -1.12606721 
14
Str.31 2.045 in generation_10_child1
Ca      0.00000000        0.00000000        0.00000000 
O     -3.06462095        2.66295674       -2.14662514 
C     -3.19731930        3.39302936       -3.11215314 
O     -2.28540759        3.33242629       -4.12415926 
C     -4.36953171        4.35984495       -3.31831943 
N     -4.86643359        4.76870933       -2.01164074 
C     -5.41344313        3.69551961       -4.25469936 
H     -2.49997803        3.99655468       -4.80942063 
H     -3.98038913        5.26614705       -3.81714449 
H     -5.09832454        3.95034288       -1.44251658 
H     -5.70274931        5.34886008       -2.10026522 
H     -5.81399242        2.77868386       -3.79891848 
H     -6.24673678        4.39123153       -4.42646159 
H     -4.99301028        3.43483136       -5.23908309 
14
Str.32 1.146 in generation_10_child2
Ca      0.00000000        0.00000000        0.00000000 
O     -0.38210571        1.28662618        1.83139865 
C     -0.11126578        2.38214243        1.29030794 
O      0.92049707        2.28014990        0.36419946 
C     -1.08540699        3.53500167        1.16674239 
N     -1.39660608        4.07245216        2.47937909 
C     -2.25777075        2.93690140        0.33602868 
H      1.15214656        3.13620764       -0.05061717 
H     -0.60309762        4.33752537        0.58454532 
H     -1.93178031        3.40352917        3.03984306 
H     -1.96127052        4.91970991        2.38723630 
H     -2.80783991        2.20190473        0.94112634 
H     -2.94912344        3.72814583        0.02002487 
H     -1.91057090        2.43503427       -0.59094379 
14
Str.33 0.179 in generation_11_child1
Ca      0.00000000        0.00000000        0.00000000 
O      1.69151812       -1.32409672       -0.74353963 
C      1.70649999       -2.14662668       -1.67577940 
O      2.83596156       -2.80036470       -1.92116099 
C      0.49935133       -2.32823119       -2.59545832 
N     -0.70056388       -1.89345582       -1.81923092 
C      0.39167374       -3.71049564       -3.25875418 
H      2.72924006       -3.42479325       -2.66869823 
H      0.63568106       -1.56587509       -3.38552621 
H     -1.06540077       -2.70573280       -1.30002456 
H     -1.44590724       -1.65553621       -2.48635145 
H      0.33062074       -4.52025888       -2.51701167 
H     -0.50200766       -3.76496736       -3.89360932 
H      1.23738842       -3.92034202       -3.93485122 
14
Str.34 2.125 in generation_11_child2
Ca      0.00000000        0.00000000        0.00000000 
O     -3.28378443        1.55266223       -3.55604735 
C     -3.29734048        1.89524779       -4.72238276 
O     -2.20359235        1.66543081       -5.50175643 
C     -4.50610221        2.52701900       -5.42193895 
N     -5.24383154        3.29851419       -4.43285196 
C     -5.31173359        1.40548342       -6.12782955 
H     -2.34843051        2.04094838       -6.39275617 
H     -4.14334527        3.23460406       -6.18987114 
H     -5.41042972        2.74261443       -3.58973281 
H     -6.13568444        3.63311016       -4.79931466 
H     -5.70613195        0.69792077       -5.38534128 
H     -6.15657386        1.84332570       -6.67556665 
H     -4.69947546        0.84435298       -6.84931354 
14
Str.35 0.331 in generation_12_child1
Ca      0.00000000        0.00000000        0.00000000 
O      1.44595382        1.14184729        1.07283419 
C      1.43600508        1.79077760        2.14416755 
O      2.15977538        1.44590401        3.16507955 
C      0.61869298        3.08088134        2.32968439 
N      0.70223779        3.38048777        3.76837094 
C     -0.79211002        3.00140434        1.73665383 
H      1.87014456        2.16325767        3.85967575 
H      1.18913524        3.84785183        1.77615136 
H     -0.16572335        3.14107121        4.25656427 
H      0.89659922        4.36669575        3.94893131 
H     -1.38306909        2.18791646        2.18999812 
H     -1.32874741        3.94486978        1.89975837 
H     -0.76053627        2.84987434        0.64620407 
14
Str.36 2.008 in generation_12_child2
Ca      0.00000000        0.00000000        0.00000000 
O      3.37480180       -4.09338709       -1.38349636 
C      3.47510713       -3.91203970       -2.57859792 
O      4.63851672       -4.18690832       -3.21806799 
C      2.30050672       -3.41523383       -3.43912484 
N      1.25647113       -2.90867840       -2.51419506 
C      1.80917335       -4.56364405       -4.34902576 
H      4.57267555       -3.98911849       -4.17299097 
H      2.65743923       -2.58277198       -4.07101513 
H      1.31508568       -3.51450079       -1.68372822 
H      0.34241940       -3.06918454       -2.94836980 
H      1.47062622       -5.42176977       -3.74894560 
H      0.97673771       -4.22629027       -4.98210072 
H      2.59635674       -4.92552049       -5.02766995 
14
Str.37 1.324 in generation_14_child1
Ca      0.00000000        0.00000000        0.00000000 
O     -2.64650818       -0.73153324       -1.14853509 
C     -3.14279013       -1.13531859       -2.20095914 
O     -2.29848388       -1.48500746       -3.19918528 
C     -4.64780085       -1.29505855       -2.54356101 
N     -5.49688075       -0.60933593       -1.58310796 
C     -5.01733470       -2.78112725       -2.80560012 
H     -2.80253247       -1.79664695       -3.97827479 
H     -4.76459654       -0.75483529       -3.50139856 
H     -5.70481221       -1.20705985       -0.77919664 
H     -6.39659300       -0.39425191       -2.02033026 
H     -4.99307336       -3.36576733       -1.87496697 
H     -6.04276710       -2.81979137       -3.20129239 
H     -4.37383374       -3.29161689       -3.53922450 
