55

 N    2.7854   -1.4529   -1.0553
 C    3.2649   -0.8433    0.1692
 C    2.1718   -0.4140    1.0588
 O    2.0270   -1.0000    2.1758
 N    1.4315    0.7824    0.9117
 C    0.2430    1.0761    0.1388
 C   -0.3266   -0.0514   -0.5846
 O   -0.3243    0.0134   -1.8526
 N   -1.5221   -0.6225   -0.0326
 C   -2.8299   -0.0278   -0.2395
 C   -2.7514    1.3524   -0.7549
 O   -2.7653    1.5503   -2.0068
 O   -3.1345    2.4477    0.0250
 C   -3.6676   -0.0056    1.0077
 C   -4.9827   -0.6778    0.7847
 C   -4.9979   -2.0582    0.7992
 C   -5.9164   -2.8184    0.1243
 C   -6.9139   -2.1582   -0.5578
 C   -7.0445   -0.7871   -0.4457
 C   -6.0479   -0.0456    0.1751
 C    0.8051    2.1689   -0.7595
 C    1.4961    3.0165    0.3057
 C    1.7286    2.0960    1.4840
 C    4.1997    0.2631   -0.2281
 C    5.5708   -0.3040   -0.4286
 N    6.0023   -1.1404   -1.3915
 C    7.0438   -1.8503   -0.9331
 N    7.4015   -1.3430    0.2680
 C    6.6026   -0.2882    0.5025
 H    2.5460   -0.6761   -1.7006
 H    3.5512   -1.9888   -1.5088
 H    2.0266   -2.1116   -0.8533
 H    3.8814   -1.6207    0.6659
 H   -0.4841    1.5757    0.8214
 H   -1.5176   -1.6355    0.2240
 H   -3.3575   -0.6400   -0.9897
 H   -2.6531    2.6101    0.9085
 H   -3.1775   -0.5087    1.8739
 H   -3.9153    1.0286    1.3496
 H   -4.2006   -2.5666    1.3124
 H   -5.7586   -3.8670   -0.1299
 H   -7.6977   -2.7489   -1.0159
 H   -7.9522   -0.3353   -0.8344
 H   -5.9957    1.0039   -0.0436
 H    0.0273    2.7218   -1.3001
 H    1.5860    1.7283   -1.4003
 H    2.4115    3.4901   -0.0706
 H    0.7212    3.7516    0.6379
 H    0.9994    2.2465    2.3007
 H    2.7273    2.1655    1.9164
 H    3.8972    0.7461   -1.1914
 H    4.3104    1.0534    0.5264
 H    7.3723   -2.8295   -1.2777
 H    8.0613   -1.7819    0.9567
 H    6.7494    0.4853    1.2585
