14
geometry.in
Ca         0.00000        0.00000        0.00000
O          0.53290       -0.40570        5.46860
C          0.02250       -0.64270        4.34140
O         -0.51560       -1.90220        4.09110
C         -0.04770        0.44100        3.29920
N          1.23770        1.13740        3.20670
C         -1.18550        1.41700        3.62070
H         -0.95650       -2.12130        3.20590
H         -0.26140       -0.02800        2.31330
H          1.38700        1.71490        4.06670
H          1.20110        1.79720        2.39560
H         -1.01780        1.90740        4.60380
H         -1.24720        2.20030        2.83570
H         -2.15520        0.87530        3.65010
