11
geometry.in
Na         0.00000        0.00000        0.00000
C          0.88420       -0.63620        2.92190
C         -0.21030        0.28310        3.37210
O         -1.36130       -0.17690        3.59320
O          0.02880        1.64240        3.55470
N          0.53680       -1.23560        1.63820
H          1.01480       -1.43670        3.68190
H          1.84500       -0.08250        2.83240
H          0.94250        2.04530        3.38490
H          0.57150       -0.48640        0.90840
H          1.28690       -1.92230        1.39470
