
     RDKit          3D

 55 57  0  0  0  0  0  0  0  0999 V2000
   18.3793    7.5161   18.2973 N   0  0  0  0  0  0  0  0  0  0  0  0
   16.9976    8.0063   18.1633 C   0  0  2  0  0  0  0  0  0  0  0  0
   16.9652    9.2884   17.3417 C   0  0  0  0  0  0  0  0  0  0  0  0
   17.7937    9.4298   16.4005 O   0  0  0  0  0  0  0  0  0  0  0  0
   16.0103   10.3376   17.5736 N   0  0  0  0  0  0  0  0  0  0  0  0
   14.5643   10.2418   17.3563 C   0  0  2  0  0  0  0  0  0  0  0  0
   14.2287    9.4401   16.1074 C   0  0  0  0  0  0  0  0  0  0  0  0
   14.5466    8.2208   16.0598 O   0  0  0  0  0  0  0  0  0  0  0  0
   13.5712   10.0154   14.9718 N   0  0  0  0  0  0  0  0  0  0  0  0
   12.1485   10.3603   15.0115 C   0  0  2  0  0  0  0  0  0  0  0  0
   11.3275    9.1475   14.6691 C   0  0  0  0  0  0  0  0  0  0  0  0
   11.4636    8.5761   13.5554 O   0  0  0  0  0  0  0  0  0  0  0  0
   10.4075    8.6518   15.5847 O   0  0  0  0  0  0  0  0  0  0  0  0
   11.8708   11.5163   14.0324 C   0  0  0  0  0  0  0  0  0  0  0  0
   10.4388   11.9870   14.0951 C   0  0  0  0  0  0  0  0  0  0  0  0
    9.9656   12.6681   15.2294 C   0  0  0  0  0  0  0  0  0  0  0  0
    8.6389   13.1059   15.2851 C   0  0  0  0  0  0  0  0  0  0  0  0
    7.7771   12.8725   14.2083 C   0  0  0  0  0  0  0  0  0  0  0  0
    8.2410   12.1992   13.0754 C   0  0  0  0  0  0  0  0  0  0  0  0
    9.5673   11.7589   13.0158 C   0  0  0  0  0  0  0  0  0  0  0  0
   14.0820   11.7018   17.3264 C   0  0  0  0  0  0  0  0  0  0  0  0
   15.1795   12.5046   18.0117 C   0  0  0  0  0  0  0  0  0  0  0  0
   16.4486   11.7074   17.7761 C   0  0  0  0  0  0  0  0  0  0  0  0
   16.3073    8.1084   19.5480 C   0  0  0  0  0  0  0  0  0  0  0  0
   16.8532    9.1943   20.4348 C   0  0  0  0  0  0  0  0  0  0  0  0
   16.1521   10.2736   20.8322 N   0  0  0  0  0  0  0  0  0  0  0  0
   16.9645   10.9335   21.6800 C   0  0  0  0  0  0  0  0  0  0  0  0
   18.1443   10.3046   21.8411 N   0  0  0  0  0  0  0  0  0  0  0  0
   18.0798    9.2039   21.0700 C   0  0  0  0  0  0  0  0  0  0  0  0
   19.0136    8.2732   18.6360 H   0  0  0  0  0  0  0  0  0  0  0  0
   18.4197    6.7070   18.9580 H   0  0  0  0  0  0  0  0  0  0  0  0
   18.7260    7.1835   17.3695 H   0  0  0  0  0  0  0  0  0  0  0  0
   16.4297    7.2426   17.5877 H   0  0  0  0  0  0  0  0  0  0  0  0
   14.0926    9.7456   18.2275 H   0  0  0  0  0  0  0  0  0  0  0  0
   13.9794    9.7886   14.0370 H   0  0  0  0  0  0  0  0  0  0  0  0
   11.8749   10.6882   16.0369 H   0  0  0  0  0  0  0  0  0  0  0  0
   12.1293   11.1940   12.9985 H   0  0  0  0  0  0  0  0  0  0  0  0
   12.5363   12.3729   14.2730 H   0  0  0  0  0  0  0  0  0  0  0  0
   10.6243   12.8612   16.0682 H   0  0  0  0  0  0  0  0  0  0  0  0
    8.2788   13.6291   16.1618 H   0  0  0  0  0  0  0  0  0  0  0  0
    6.7504   13.2120   14.2540 H   0  0  0  0  0  0  0  0  0  0  0  0
    7.5730   12.0187   12.2429 H   0  0  0  0  0  0  0  0  0  0  0  0
    9.9106   11.2343   12.1319 H   0  0  0  0  0  0  0  0  0  0  0  0
   13.9912   12.0881   16.2899 H   0  0  0  0  0  0  0  0  0  0  0  0
   13.1104   11.8226   17.8526 H   0  0  0  0  0  0  0  0  0  0  0  0
   14.9733   12.5602   19.1027 H   0  0  0  0  0  0  0  0  0  0  0  0
   15.2586   13.5333   17.5972 H   0  0  0  0  0  0  0  0  0  0  0  0
   16.9714   12.0726   16.8657 H   0  0  0  0  0  0  0  0  0  0  0  0
   17.1257   11.7767   18.6529 H   0  0  0  0  0  0  0  0  0  0  0  0
   15.2200    8.2580   19.4090 H   0  0  0  0  0  0  0  0  0  0  0  0
   16.4039    7.1374   20.0829 H   0  0  0  0  0  0  0  0  0  0  0  0
   15.1769   10.5358   20.5630 H   0  0  0  0  0  0  0  0  0  0  0  0
   16.6941   11.8516   22.1854 H   0  0  0  0  0  0  0  0  0  0  0  0
   18.9355   10.5979   22.4553 H   0  0  0  0  0  0  0  0  0  0  0  0
   18.8548    8.4513   21.0078 H   0  0  0  0  0  0  0  0  0  0  0  0
  2  1  1  1
  2  3  1  0
  3  4  2  0
  3  5  1  0
  5  6  1  0
  6  7  1  6
  7  8  2  0
  7  9  1  0
 10  9  1  1
 10 11  1  0
 11 12  2  0
 11 13  1  0
 10 14  1  0
 14 15  1  0
 15 16  2  0
 16 17  1  0
 17 18  2  0
 18 19  1  0
 19 20  2  0
  6 21  1  0
 21 22  1  0
 22 23  1  0
  2 24  1  0
 24 25  1  0
 25 26  1  0
 26 27  1  0
 27 28  2  0
 28 29  1  0
 23  5  1  0
 29 25  2  0
 20 15  1  0
  1 30  1  0
  1 31  1  0
  1 32  1  0
  2 33  1  0
  6 34  1  0
  9 35  1  0
 10 36  1  0
 14 37  1  0
 14 38  1  0
 16 39  1  0
 17 40  1  0
 18 41  1  0
 19 42  1  0
 20 43  1  0
 21 44  1  0
 21 45  1  0
 22 46  1  0
 22 47  1  0
 23 48  1  0
 23 49  1  0
 24 50  1  0
 24 51  1  0
 26 52  1  0
 27 53  1  0
 28 54  1  0
 29 55  1  0
M  CHG  3   1   1  13  -1  28   1
M  END
