
     RDKit          3D

 55 57  0  0  0  0  0  0  0  0999 V2000
   14.0412   11.9867   16.1228 N   0  0  0  0  0  0  0  0  0  0  0  0
   13.7373   10.5479   16.0524 C   0  0  2  0  0  0  0  0  0  0  0  0
   12.6782   10.1767   17.0822 C   0  0  0  0  0  0  0  0  0  0  0  0
   12.5805    8.9731   17.4489 O   0  0  0  0  0  0  0  0  0  0  0  0
   11.7991   11.1453   17.6784 N   0  0  0  0  0  0  0  0  0  0  0  0
   12.2033   12.2249   18.5832 C   0  0  2  0  0  0  0  0  0  0  0  0
   13.2906   11.7797   19.5499 C   0  0  0  0  0  0  0  0  0  0  0  0
   14.4905   12.0748   19.2986 O   0  0  0  0  0  0  0  0  0  0  0  0
   13.0104   11.0274   20.7367 N   0  0  0  0  0  0  0  0  0  0  0  0
   12.3720   11.6500   21.8981 C   0  0  2  0  0  0  0  0  0  0  0  0
   13.2155   12.7977   22.3808 C   0  0  0  0  0  0  0  0  0  0  0  0
   13.9302   12.6777   23.4108 O   0  0  0  0  0  0  0  0  0  0  0  0
   13.2071   14.0030   21.6903 O   0  0  0  0  0  0  0  0  0  0  0  0
   12.1765   10.5969   23.0051 C   0  0  0  0  0  0  0  0  0  0  0  0
   12.1077    9.1942   22.4539 C   0  0  0  0  0  0  0  0  0  0  0  0
   11.1794    8.8723   21.4494 C   0  0  0  0  0  0  0  0  0  0  0  0
   11.1185    7.5726   20.9378 C   0  0  0  0  0  0  0  0  0  0  0  0
   11.9860    6.5870   21.4201 C   0  0  0  0  0  0  0  0  0  0  0  0
   12.9143    6.9001   22.4164 C   0  0  0  0  0  0  0  0  0  0  0  0
   12.9781    8.1989   22.9314 C   0  0  0  0  0  0  0  0  0  0  0  0
   10.8953   12.6733   19.2562 C   0  0  0  0  0  0  0  0  0  0  0  0
    9.7806   12.1729   18.3475 C   0  0  0  0  0  0  0  0  0  0  0  0
   10.3596   10.9514   17.6585 C   0  0  0  0  0  0  0  0  0  0  0  0
   15.0346    9.7016   16.1259 C   0  0  0  0  0  0  0  0  0  0  0  0
   16.0173    9.9752   15.0199 C   0  0  0  0  0  0  0  0  0  0  0  0
   17.1296   10.7219   15.1607 N   0  0  0  0  0  0  0  0  0  0  0  0
   17.7690   10.6344   13.9784 C   0  0  0  0  0  0  0  0  0  0  0  0
   17.1085    9.8519   13.1040 N   0  0  0  0  0  0  0  0  0  0  0  0
   16.0106    9.4239   13.7534 C   0  0  0  0  0  0  0  0  0  0  0  0
   14.2579   12.2758   17.1025 H   0  0  0  0  0  0  0  0  0  0  0  0
   14.8498   12.2222   15.5036 H   0  0  0  0  0  0  0  0  0  0  0  0
   13.2178   12.5367   15.7894 H   0  0  0  0  0  0  0  0  0  0  0  0
   13.2936   10.3517   15.0517 H   0  0  0  0  0  0  0  0  0  0  0  0
   12.5902   13.0772   17.9902 H   0  0  0  0  0  0  0  0  0  0  0  0
   13.6266   10.2032   20.9180 H   0  0  0  0  0  0  0  0  0  0  0  0
   11.3769   12.0478   21.6055 H   0  0  0  0  0  0  0  0  0  0  0  0
   11.2534   10.8344   23.5808 H   0  0  0  0  0  0  0  0  0  0  0  0
   13.0216   10.6545   23.7239 H   0  0  0  0  0  0  0  0  0  0  0  0
   10.5056    9.6277   21.0623 H   0  0  0  0  0  0  0  0  0  0  0  0
   10.4006    7.3291   20.1647 H   0  0  0  0  0  0  0  0  0  0  0  0
   11.9365    5.5814   21.0228 H   0  0  0  0  0  0  0  0  0  0  0  0
   13.5847    6.1364   22.7892 H   0  0  0  0  0  0  0  0  0  0  0  0
   13.7007    8.4248   23.7068 H   0  0  0  0  0  0  0  0  0  0  0  0
   10.7517   12.1932   20.2464 H   0  0  0  0  0  0  0  0  0  0  0  0
   10.8516   13.7780   19.3709 H   0  0  0  0  0  0  0  0  0  0  0  0
    9.5429   12.9494   17.5884 H   0  0  0  0  0  0  0  0  0  0  0  0
    8.8613   11.9225   18.9209 H   0  0  0  0  0  0  0  0  0  0  0  0
   10.0974   10.0293   18.2208 H   0  0  0  0  0  0  0  0  0  0  0  0
    9.9892   10.8751   16.6151 H   0  0  0  0  0  0  0  0  0  0  0  0
   15.5263    9.8625   17.1037 H   0  0  0  0  0  0  0  0  0  0  0  0
   14.7734    8.6204   16.1032 H   0  0  0  0  0  0  0  0  0  0  0  0
   17.4468   11.2407   16.0108 H   0  0  0  0  0  0  0  0  0  0  0  0
   18.7111   11.1217   13.7628 H   0  0  0  0  0  0  0  0  0  0  0  0
   17.4002    9.6083   12.1319 H   0  0  0  0  0  0  0  0  0  0  0  0
   15.2843    8.7344   13.3436 H   0  0  0  0  0  0  0  0  0  0  0  0
  2  1  1  1
  2  3  1  0
  3  4  2  0
  3  5  1  0
  5  6  1  0
  6  7  1  6
  7  8  2  0
  7  9  1  0
 10  9  1  1
 10 11  1  0
 11 12  2  0
 11 13  1  0
 10 14  1  0
 14 15  1  0
 15 16  2  0
 16 17  1  0
 17 18  2  0
 18 19  1  0
 19 20  2  0
  6 21  1  0
 21 22  1  0
 22 23  1  0
  2 24  1  0
 24 25  1  0
 25 26  1  0
 26 27  1  0
 27 28  2  0
 28 29  1  0
 23  5  1  0
 29 25  2  0
 20 15  1  0
  1 30  1  0
  1 31  1  0
  1 32  1  0
  2 33  1  0
  6 34  1  0
  9 35  1  0
 10 36  1  0
 14 37  1  0
 14 38  1  0
 16 39  1  0
 17 40  1  0
 18 41  1  0
 19 42  1  0
 20 43  1  0
 21 44  1  0
 21 45  1  0
 22 46  1  0
 22 47  1  0
 23 48  1  0
 23 49  1  0
 24 50  1  0
 24 51  1  0
 26 52  1  0
 27 53  1  0
 28 54  1  0
 29 55  1  0
M  CHG  3   1   1  13  -1  28   1
M  END












