14
/home/maksimov/programs/fafoom-dev/test_cluster/analyze/geometry.in
Ca         0.00000        0.00000        0.00000
O         -2.44200       -4.78740        4.29380
C         -2.32380       -4.19160        3.19000
O         -1.09160       -4.20150        2.54180
C         -3.51540       -3.52190        2.55980
N         -4.23780       -2.73090        3.55890
C         -4.43170       -4.56540        1.91020
H         -0.96540       -3.75490        1.64140
H         -3.15560       -2.83300        1.76390
H         -4.71840       -3.37100        4.23330
H         -4.98300       -2.18080        3.07250
H         -4.81230       -5.28240        2.66920
H         -5.29630       -4.06320        1.42670
H         -3.87500       -5.12890        1.13090
