55
Comment
N   14.468   7.831   13.116
C   15.268   8.781   13.942
C   14.826   10.21   13.644
O   15.489   10.763   12.78
N   13.821   10.913   14.177
C   13.267   10.862   15.532
C   12.899   9.537   16.189
O   13.765   9.081   16.928
N   11.733   8.854   16.087
C   10.861   8.472   14.967
C   11.668   7.93   13.789
O   11.992   6.719   13.703
O   12.137   8.79   13.003
C   9.832   9.523   14.434
C   8.522   8.936   13.936
C   8.291   7.548   13.814
C   7.032   7.056   13.454
C   5.987   7.943   13.185
C   6.198   9.324   13.268
C   7.458   9.815   13.644
C   12.159   11.925   15.507
C   12.769   13.005   14.619
C   13.387   12.153   13.51
C   16.768   8.512   13.535
C   17.883   9.558   13.607
N   19.169   9.13   13.377
C   19.96   10.185   13.234
N   19.231   11.278   13.364
C   17.926   10.918   13.593
H   14.555   7.975   12.091
H   14.501   6.82   13.34
H   13.436   8.094   13.277
H   15.084   8.562   14.985
H   14.042   11.244   16.186
H   11.62   8.225   16.846
H   10.33   7.624   15.374
H   10.281   10.117   13.598
H   9.578   10.185   15.287
H   9.065   6.825   14.016
H   6.873   5.989   13.373
H   5.03   7.557   12.861
H   5.39   10.005   13.025
H   7.605   10.882   13.724
H   11.262   11.526   14.993
H   11.875   12.295   16.511
H   13.564   13.537   15.186
H   12.036   13.746   14.237
H   12.598   11.872   12.776
H   14.204   12.698   12.981
H   17.102   7.6   14.081
H   16.776   8.254   12.459
H   19.47   8.178   13.279
H   21.018   10.149   13.018
H   19.56   12.218   13.24
H   17.111   11.636   13.658
