14
geometry.in
Ca         0.00000        0.00000        0.00000
O         -2.44200       -4.78740        2.41720
C         -2.32380       -4.19160        1.31340
O         -1.09160       -4.20150        0.66520
C         -3.51540       -3.52190        0.68320
N         -4.23780       -2.73090        1.68230
C         -4.43170       -4.56540        0.03360
H         -0.96540       -3.75490       -0.23520
H         -3.15560       -2.83300       -0.11270
H         -4.71840       -3.37100        2.35670
H         -4.98300       -2.18080        1.19590
H         -4.81230       -5.28240        0.79260
H         -5.29630       -4.06320       -0.44990
H         -3.87500       -5.12890       -0.74570
