55

 N    0.9265    4.1419   -1.2145
 C    0.2577    3.8999    0.0498
 C   -0.9076    3.0147   -0.2379
 O   -2.0265    3.5772   -0.3461
 N   -0.8488    1.6747    0.2648
 C   -0.2291    0.5971   -0.5018
 C   -0.8978   -0.7108   -0.2246
 O   -2.0823   -0.6288    0.2182
 N   -0.1529   -1.9079    0.0188
 C   -0.0003   -2.8486   -1.0886
 C   -1.2881   -3.5792   -1.3007
 O   -1.6443   -3.7171   -2.5106
 O   -2.3474   -3.4374   -0.3990
 C    1.1647   -3.7728   -0.8971
 C    0.7822   -5.1883   -0.7062
 C    1.6836   -6.1460   -1.1577
 C    1.8432   -7.3684   -0.5357
 C    1.0259   -7.7183    0.5141
 C    0.0120   -6.8410    0.8613
 C    0.1546   -5.5101    0.4916
 C    1.1673    0.5699    0.0849
 C    0.8817    0.7961    1.5544
 C   -0.5005    1.3858    1.6470
 C   -0.1476    5.1709    0.7446
 C    0.3127    6.3889    0.0144
 N    1.5834    6.8132   -0.1882
 C    1.5670    7.6905   -1.1984
 N    0.3004    8.1614   -1.2590
 C   -0.4751    7.4502   -0.4099
 H    1.9237    4.3865   -1.0607
 H    0.4046    4.8177   -1.8045
 H    0.9349    3.2198   -1.7186
 H    1.0093    3.4006    0.7054
 H   -0.2296    0.8260   -1.5837
 H    0.2127   -2.1764    0.9508
 H    0.2469   -2.2068   -1.9727
 H   -2.2519   -3.4969    0.5955
 H    1.9393   -3.6700   -1.6988
 H    1.6849   -3.4566    0.0407
 H    2.4343   -5.8810   -1.8904
 H    2.6999   -8.0199   -0.7155
 H    1.1901   -8.6573    1.0453
 H   -0.6770   -7.1151    1.6476
 H   -0.2545   -4.7305    1.1368
 H    1.8229    1.3493   -0.3330
 H    1.6264   -0.4300   -0.0963
 H    0.9250   -0.1638    2.0947
 H    1.6263    1.4690    2.0060
 H   -1.2265    0.6885    2.1257
 H   -0.4776    2.2912    2.2804
 H    0.2523    5.2430    1.7857
 H   -1.2423    5.2167    0.8298
 H    2.2674    7.8446   -2.0095
 H   -0.0821    8.9018   -1.8952
 H   -1.4692    7.7071   -0.0406
