56
geometry_10.in
Na         0.00000        0.00000        0.00000
N          0.94620        3.56850        1.02740
C          0.86100        3.04580        2.40100
C          0.08000        1.74710        2.40270
O          0.37980        0.86140        1.55910
N         -0.96280        1.47760        3.36250
C         -1.32910        0.12220        3.76260
C         -2.11430       -0.58750        2.67610
O         -3.17040       -0.05680        2.23640
N         -1.71960       -1.86600        2.14030
C         -0.44240       -2.54980        2.40580
C         -0.11830       -3.50270        1.27640
O         -0.62740       -3.30980        0.14000
O          0.70650       -4.61190        1.46150
C         -0.44010       -3.25380        3.78210
C          0.51930       -4.41390        3.90120
C          1.39090       -4.50800        4.99730
C          2.27760       -5.58470        5.10300
C          2.27650       -6.59130        4.13590
C          1.39630       -6.51660        3.05490
C          0.52010       -5.43520        2.93590
C         -2.17480        0.30390        5.02560
C         -2.68710        1.73770        4.96550
C         -1.65130        2.49390        4.14630
C          0.18980        4.06260        3.34920
C          0.86240        5.40340        3.28550
N          1.48950        5.88470        2.19110
C          1.86110        7.13340        2.55020
N          1.49480        7.44550        3.80900
C          0.86620        6.35610        4.28130
H          1.61500        4.37080        0.98190
H          0.00470        3.88180        0.69610
H          1.29170        2.82050        0.38070
H          1.89400        2.86930        2.76680
H         -0.39320       -0.43010        3.99580
H         -2.39310       -2.32330        1.48280
H          0.38730       -1.81720        2.44610
H          1.10030       -4.84990        2.36460
H         -0.21600       -2.49630        4.56630
H         -1.46460       -3.62090        4.01130
H          1.39270       -3.73980        5.76220
H          2.93930       -5.65390        5.95810
H          2.95230       -7.43450        4.22830
H          1.39960       -7.29800        2.30370
H         -0.14660       -5.38420        2.07910
H         -1.52290        0.18970        5.91930
H         -3.01500       -0.42080        5.10970
H         -3.66980        1.75540        4.44100
H         -2.80760        2.16810        5.98410
H         -2.13380        3.24310        3.48140
H         -0.93430        2.99330        4.83500
H          0.24690        3.68990        4.39610
H         -0.88440        4.17560        3.08560
H          2.41320        7.80320        1.90590
H          1.66430        8.34640        4.31010
H          0.43030        6.27150        5.26840
