14
/home/maksimov/programs/fafoom-dev/test_cluster/one/generation_11_child1/analyze/geometry.in
Ca         0.00000        0.00000        0.00000
O          2.04650       -3.78740       -0.70620
C          2.16470       -3.19160       -1.81000
O          3.39690       -3.20150       -2.45820
C          0.97310       -2.52190       -2.44020
N          0.25070       -1.73090       -1.44110
C          0.05680       -3.56540       -3.08980
H          3.52310       -2.75490       -3.35860
H          1.33290       -1.83300       -3.23610
H         -0.22990       -2.37100       -0.76670
H         -0.49450       -1.18080       -1.92750
H         -0.32380       -4.28240       -2.33080
H         -0.80780       -3.06320       -3.57330
H          0.61350       -4.12890       -3.86910
